%chk=build H3PO4.chk
# hf/3-21g geom=connectivity

Title Card Required

0 1
 O                 -2.22741778   -2.61834294    1.39620941
 H                 -1.81133595   -2.96216092    2.19010179
 O                 -4.50742765   -3.42441618    0.00000000
 H                 -4.82791240   -4.32768120    0.05478900
 O                 -2.22744721   -5.03664763    0.00000000
 O                 -2.22741778   -2.61834294   -1.39620941
 H                 -1.29469619   -2.80986888   -1.51847245
 P                 -2.79742765   -3.42443725    0.00000000

 1 2 1.0 8 1.0
 2
 3 4 1.0 8 1.0
 4
 5 8 2.0
 6 7 1.0 8 1.0
 7
 8

