%chk=cyclochair.chk
# hf/3-21g geom=connectivity

Title Card Required

0 1
 C                 -0.75058134   -0.96804003    0.00000000
 C                  0.76452466   -0.96804003    0.00000000
 C                  1.31645566    0.44303797    0.00000000
 C                  0.76679266    1.24757497    1.16066100
 C                 -0.74833234    1.24823597    1.16017200
 C                 -1.30113234   -0.16238503    1.15887600
 H                  2.43505466    0.40904697    0.06271400
 H                  1.13707366   -1.51367403    0.90656200
 H                  1.13981866   -1.51789903   -0.90191000
 H                 -1.12326934   -0.53501103   -0.96538500
 H                 -1.12617834   -2.02226003    0.06350200
 H                  1.13932766    0.81272997    2.12527200
 H                  1.14281566    2.30171197    1.09866600
 H                 -1.12365234    1.79766397    2.06228600
 H                 -1.12018734    1.79483697    0.25384900
 H                 -1.03512834   -0.66810703    2.12419100
 H                 -2.41968034   -0.12732403    1.09393800
 H                  1.04783766    0.94867097   -0.96454600

 1 2 1.0 6 1.0 11 1.0 10 1.0
 2 3 1.0 8 1.0 9 1.0
 3 4 1.0 7 1.0 18 1.0
 4 5 1.0 12 1.0 13 1.0
 5 6 1.0 14 1.0 15 1.0
 6 17 1.0 16 1.0
 7
 8
 9
 10
 11
 12
 13
 14
 15
 16
 17
 18

