%chk=methanol_gaussian.chk
# opt freq hf/6-311g(d,p) geom=connectivity

Title Card Required

0 1
 C                 -0.39682540    0.49783549    0.00000000
 H                 -0.04017098   -0.51097451    0.00000000
 H                 -0.04015256    1.00223368    0.87365150
 H                 -1.46682540    0.49784867    0.00000000
 O                  0.07984951    1.17193774   -1.16759033
 H                 -0.24135529    2.07660662   -1.16889301

 1 2 1.0 3 1.0 4 1.0 5 1.0
 2
 3
 4
 5 6 1.0
 6

