%chk=sulfuricworse.chk
# hf/3-21g geom=connectivity

Title Card Required

0 1
 S                 -0.58472245   -3.26806971   -1.33446470
 O                 -0.02807489   -4.84256756   -1.33446470
 O                 -2.25472245   -3.26804913   -1.33446470
 O                 -0.02804615   -2.48083141    0.02908484
 H                 -0.34638551   -1.57514943    0.02863278
 O                 -0.02804615   -2.48083141   -2.69801425
 H                 -0.28234383   -1.55589342   -2.66029947

 1 2 2.0 3 2.0 4 1.0 6 1.0
 2
 3
 4 5 1.0
 5
 6 7 1.0
 7

