%chk=formaldehyde.chk
# hf/3-21g geom=connectivity

Title Card Required

0 1
 C                 -0.78481011   -0.36708860    0.00000000
 H                 -0.25164636   -1.29479352    0.00000000
 H                 -1.85481011   -0.36708860    0.00000000
 O                 -0.15776968    0.72396174    0.00000000

 1 2 1.0 3 1.0 4 2.0
 2
 3
 4

