%chk=hcoh_gauss.chk
# hf/3-21g geom=connectivity

Title Card Required

0 1
 C                  0.23809524    0.54112553    0.00000000
 H                  0.77125899   -0.38657939    0.00000000
 H                 -0.83190476    0.54112553    0.00000000
 O                  0.86513567    1.63217588    0.00000000

 1 2 1.0 3 1.0 4 2.0
 2
 3
 4

