%chk=methanol.chk
# hf/3-21g geom=connectivity

Title Card Required

0 1
 C                 -5.13924038    0.99999999    0.00000000
 H                 -4.78258595   -0.00881002    0.00000000
 H                 -4.78256754    1.50439818    0.87365150
 H                 -6.20924038    1.00001317    0.00000000
 O                 -4.66256546    1.67410224   -1.16759033
 H                 -4.03197131    3.20418707   -1.55668147

 1 2 1.0 3 1.0 4 1.0 5 1.0
 2
 3
 4
 5 6 1.0
 6

